Version 4
SHEET 1 1392 712
WIRE 288 0 240 0
WIRE 384 0 352 0
WIRE 544 0 384 0
WIRE 896 0 800 0
WIRE 1008 0 896 0
WIRE 1264 0 1008 0
WIRE 384 16 384 0
WIRE 896 16 896 0
WIRE 1008 16 1008 0
WIRE 672 112 672 96
WIRE 896 112 896 96
WIRE 896 112 672 112
WIRE 672 128 672 112
WIRE 144 144 64 144
WIRE 240 144 240 0
WIRE 144 224 64 224
WIRE 384 224 384 80
WIRE 384 224 240 224
WIRE 672 224 672 208
WIRE 672 224 384 224
WIRE 1008 224 1008 80
WIRE 1008 224 672 224
WIRE 1008 320 1008 224
WIRE 1008 320 944 320
WIRE 944 336 944 320
WIRE 288 416 240 416
WIRE 384 416 352 416
WIRE 544 416 384 416
WIRE 896 416 800 416
WIRE 1008 416 1008 320
WIRE 1008 416 896 416
WIRE 384 432 384 416
WIRE 896 432 896 416
WIRE 1008 432 1008 416
WIRE 672 528 672 512
WIRE 896 528 896 512
WIRE 896 528 672 528
WIRE 672 544 672 528
WIRE 144 560 64 560
WIRE 240 560 240 416
WIRE 144 640 64 640
WIRE 384 640 384 496
WIRE 384 640 240 640
WIRE 672 640 672 624
WIRE 672 640 384 640
WIRE 1008 640 1008 496
WIRE 1008 640 672 640
WIRE 1264 640 1008 640
FLAG 944 336 0
FLAG 1264 0 +400V
IOPIN 1264 0 Out
FLAG 1264 640 -400V
IOPIN 1264 640 Out
SYMBOL ind 256 240 R180
WINDOW 0 36 80 Left 2
WINDOW 3 36 40 Left 2
SYMATTR InstName L1
SYMBOL ind 128 128 R0
SYMATTR InstName L2
SYMBOL diode 288 16 R270
WINDOW 0 32 32 VTop 2
WINDOW 3 0 32 VBottom 2
SYMATTR InstName D1
SYMBOL cap 368 16 R0
SYMATTR InstName C1
SYMBOL PowerProducts\\LT1086-2.85 672 0 R0
SYMATTR InstName U1
SYMBOL res 656 112 R0
SYMATTR InstName R1
SYMBOL res 880 0 R0
SYMATTR InstName R2
SYMBOL cap 992 16 R0
SYMATTR InstName C2
SYMBOL ind 256 656 R180
WINDOW 0 36 80 Left 2
WINDOW 3 36 40 Left 2
SYMATTR InstName L3
SYMBOL ind 128 544 R0
SYMATTR InstName L4
SYMBOL diode 288 432 R270
WINDOW 0 32 32 VTop 2
WINDOW 3 0 32 VBottom 2
SYMATTR InstName D2
SYMBOL cap 368 432 R0
SYMATTR InstName C3
SYMBOL PowerProducts\\LT1086-2.85 672 416 R0
SYMATTR InstName U2
SYMBOL res 656 528 R0
SYMATTR InstName R3
SYMBOL res 880 416 R0
SYMATTR InstName R4
SYMBOL cap 992 432 R0
SYMATTR InstName C4
TEXT 400 624 Left 2 ;Ground za U2\nna -400V potencijalu.
TEXT 400 208 Left 2 ;Ground za U1\nna 0V potencijalu.
